Program Version,EnergyPlus, Version 23.2.0-7636e6b3e9, YMD=2025.01.22 16:44
