Program Version,EnergyPlus, Version 23.2.0-7636e6b3e9, YMD=2025.01.22 16:44,
   ** Severe  ** Sizing:Zone="ALL_ZONES" invalid Zone or ZoneList Name not found.
   ** Severe  ** GetZoneSizingInput: Errors with invalid names in Sizing:Zone objects.
   **   ~~~   ** ...These will not be read in.  Other errors may occur.
   **  Fatal  ** Sizing:Zone: Errors found in getting input. Program terminates.
   ...Summary of Errors that led to program termination:
   ..... Reference severe error count=2
   ..... Last severe error=GetZoneSizingInput: Errors with invalid names in Sizing:Zone objects.
   ************* Warning:  Node connection errors not checked - most system input has not been read (see previous warning).
   ************* Fatal error -- final processing.  Program exited before simulations began.  See previous error messages.
   ************* EnergyPlus Warmup Error Summary. During Warmup: 0 Warning; 0 Severe Errors.
   ************* EnergyPlus Sizing Error Summary. During Sizing: 0 Warning; 2 Severe Errors.
   ************* EnergyPlus Terminated--Fatal Error Detected. 0 Warning; 2 Severe Errors; Elapsed Time=00hr 00min  0.07sec
